MODEL 1
REMARK VINA RESULT:    -3.455      0.000      0.000
REMARK ITER + INTRA:           -3.942
REMARK INTER:                  -3.759
REMARK INTRA:                  -0.184
REMARK UNBOUND:                -0.184
REMARK  2 active torsions:
REMARK  status: ('A' for Active; 'I' for Inactive)
REMARK       I    between atoms: C2_2  and  N1_4 
REMARK    1  A    between atoms: C4_6  and  O4_12 
REMARK    2  A    between atoms: C6_8  and  C7_9 
ROOT
ATOM      1  C1  <0> d           9.484  -1.770  -5.396  0.00  0.00     0.117 C 
ATOM      2  C2  <0> d           8.756  -0.643  -6.083  0.00  0.00     0.216 C 
ATOM      3  O1  <0> d           8.925  -0.444  -7.267  0.00  0.00    -0.274 OA
ATOM      4  N1  <0> d           7.916   0.143  -5.381  0.00  0.00    -0.335 N 
ATOM      5  C3  <0> d           7.622   0.018  -3.941  0.00  0.00     0.158 C 
ATOM      6  C4  <0> d           7.155   1.429  -3.507  0.00  0.00     0.138 C 
ATOM      7  C5  <0> d           6.348   1.886  -4.751  0.00  0.00     0.070 C 
ATOM      8  C6  <0> d           7.145   1.272  -5.921  0.00  0.00     0.190 C 
ENDROOT
BRANCH   8   9
ATOM      9  C7  <0> d           6.196   0.782  -6.984  0.00  0.00     0.197 C 
ATOM     10  O2  <0> d           6.234   1.263  -8.104  0.00  0.00    -0.646 OA
ATOM     11  O3  <0> d           5.390  -0.096  -6.724  0.00  0.00    -0.646 OA
ENDBRANCH   8   9
BRANCH   6  12
ATOM     12  O4  <0> d           6.318   1.358  -2.351  0.00  0.00    -0.394 OA
ATOM     13  H10 <0> d           5.386   1.195  -2.550  0.00  0.00     0.210 HD
ENDBRANCH   6  12
TORSDOF 2
ENDMDL
MODEL 2
REMARK VINA RESULT:    -3.237      1.987      4.504
REMARK ITER + INTRA:           -3.705
REMARK INTER:                  -3.522
REMARK INTRA:                  -0.183
REMARK UNBOUND:                -0.184
REMARK  2 active torsions:
REMARK  status: ('A' for Active; 'I' for Inactive)
REMARK       I    between atoms: C2_2  and  N1_4 
REMARK    1  A    between atoms: C4_6  and  O4_12 
REMARK    2  A    between atoms: C6_8  and  C7_9 
ROOT
ATOM      1  C1  <0> d           6.087   1.990  -5.278  0.00  0.00     0.117 C 
ATOM      2  C2  <0> d           7.150   1.104  -4.681  0.00  0.00     0.216 C 
ATOM      3  O1  <0> d           7.406   1.177  -3.498  0.00  0.00    -0.274 OA
ATOM      4  N1  <0> d           7.817   0.231  -5.463  0.00  0.00    -0.335 N 
ATOM      5  C3  <0> d           7.612   0.044  -6.911  0.00  0.00     0.158 C 
ATOM      6  C4  <0> d           8.949  -0.542  -7.428  0.00  0.00     0.138 C 
ATOM      7  C5  <0> d           9.357  -1.469  -6.253  0.00  0.00     0.070 C 
ATOM      8  C6  <0> d           8.874  -0.687  -5.014  0.00  0.00     0.190 C 
ENDROOT
BRANCH   8   9
ATOM      9  C7  <0> d           8.319  -1.644  -3.990  0.00  0.00     0.197 C 
ATOM     10  O2  <0> d           8.829  -1.717  -2.885  0.00  0.00    -0.646 OA
ATOM     11  O3  <0> d           7.360  -2.345  -4.267  0.00  0.00    -0.646 OA
ENDBRANCH   8   9
BRANCH   6  12
ATOM     12  O4  <0> d           8.749  -1.293  -8.627  0.00  0.00    -0.394 OA
ATOM     13  H10 <0> d           8.469  -0.758  -9.383  0.00  0.00     0.210 HD
ENDBRANCH   6  12
TORSDOF 2
ENDMDL
MODEL 3
REMARK VINA RESULT:    -2.296      4.435      5.999
REMARK ITER + INTRA:           -2.682
REMARK INTER:                  -2.505
REMARK INTRA:                  -0.177
REMARK UNBOUND:                -0.184
REMARK  2 active torsions:
REMARK  status: ('A' for Active; 'I' for Inactive)
REMARK       I    between atoms: C2_2  and  N1_4 
REMARK    1  A    between atoms: C4_6  and  O4_12 
REMARK    2  A    between atoms: C6_8  and  C7_9 
ROOT
ATOM      1  C1  <0> d           2.042   0.548  -8.129  0.00  0.00     0.117 C 
ATOM      2  C2  <0> d           2.284   0.897  -6.683  0.00  0.00     0.216 C 
ATOM      3  O1  <0> d           2.407   0.017  -5.858  0.00  0.00    -0.274 OA
ATOM      4  N1  <0> d           2.365   2.189  -6.307  0.00  0.00    -0.335 N 
ATOM      5  C3  <0> d           2.230   3.355  -7.200  0.00  0.00     0.158 C 
ATOM      6  C4  <0> d           1.779   4.512  -6.275  0.00  0.00     0.138 C 
ATOM      7  C5  <0> d           2.587   4.212  -4.985  0.00  0.00     0.070 C 
ATOM      8  C6  <0> d           2.597   2.670  -4.937  0.00  0.00     0.190 C 
ENDROOT
BRANCH   8   9
ATOM      9  C7  <0> d           3.935   2.183  -4.443  0.00  0.00     0.197 C 
ATOM     10  O2  <0> d           4.937   2.374  -5.110  0.00  0.00    -0.646 OA
ATOM     11  O3  <0> d           4.015   1.600  -3.375  0.00  0.00    -0.646 OA
ENDBRANCH   8   9
BRANCH   6  12
ATOM     12  O4  <0> d           2.145   5.779  -6.825  0.00  0.00    -0.394 OA
ATOM     13  H10 <0> d           1.393   6.353  -7.026  0.00  0.00     0.210 HD
ENDBRANCH   6  12
TORSDOF 2
ENDMDL
MODEL 4
REMARK VINA RESULT:    -1.966      6.794      8.249
REMARK ITER + INTRA:           -2.322
REMARK INTER:                  -2.139
REMARK INTRA:                  -0.183
REMARK UNBOUND:                -0.184
REMARK  2 active torsions:
REMARK  status: ('A' for Active; 'I' for Inactive)
REMARK       I    between atoms: C2_2  and  N1_4 
REMARK    1  A    between atoms: C4_6  and  O4_12 
REMARK    2  A    between atoms: C6_8  and  C7_9 
ROOT
ATOM      1  C1  <0> d          -1.356   2.084  -5.925  0.00  0.00     0.117 C 
ATOM      2  C2  <0> d          -0.518   3.333  -5.834  0.00  0.00     0.216 C 
ATOM      3  O1  <0> d          -0.738   4.149  -4.965  0.00  0.00    -0.274 OA
ATOM      4  N1  <0> d           0.476   3.543  -6.720  0.00  0.00    -0.335 N 
ATOM      5  C3  <0> d           0.847   2.641  -7.826  0.00  0.00     0.158 C 
ATOM      6  C4  <0> d           1.548   3.553  -8.863  0.00  0.00     0.138 C 
ATOM      7  C5  <0> d           2.326   4.531  -7.943  0.00  0.00     0.070 C 
ATOM      8  C6  <0> d           1.367   4.713  -6.747  0.00  0.00     0.190 C 
ENDROOT
BRANCH   8   9
ATOM      9  C7  <0> d           2.157   4.785  -5.466  0.00  0.00     0.197 C 
ATOM     10  O2  <0> d           2.830   3.833  -5.110  0.00  0.00    -0.646 OA
ATOM     11  O3  <0> d           2.123   5.797  -4.785  0.00  0.00    -0.646 OA
ENDBRANCH   8   9
BRANCH   6  12
ATOM     12  O4  <0> d           2.444   2.801  -9.684  0.00  0.00    -0.394 OA
ATOM     13  H10 <0> d           2.145   2.694 -10.597  0.00  0.00     0.210 HD
ENDBRANCH   6  12
TORSDOF 2
ENDMDL
MODEL 5
REMARK VINA RESULT:    -1.831      6.967      8.732
REMARK ITER + INTRA:           -2.175
REMARK INTER:                  -1.992
REMARK INTRA:                  -0.184
REMARK UNBOUND:                -0.184
REMARK  2 active torsions:
REMARK  status: ('A' for Active; 'I' for Inactive)
REMARK       I    between atoms: C2_2  and  N1_4 
REMARK    1  A    between atoms: C4_6  and  O4_12 
REMARK    2  A    between atoms: C6_8  and  C7_9 
ROOT
ATOM      1  C1  <0> d          -1.264   2.372  -9.519  0.00  0.00     0.117 C 
ATOM      2  C2  <0> d          -0.393   3.429  -8.889  0.00  0.00     0.216 C 
ATOM      3  O1  <0> d          -0.783   4.033  -7.912  0.00  0.00    -0.274 OA
ATOM      4  N1  <0> d           0.818   3.704  -9.413  0.00  0.00    -0.335 N 
ATOM      5  C3  <0> d           1.411   3.053 -10.596  0.00  0.00     0.158 C 
ATOM      6  C4  <0> d           2.434   4.079 -11.142  0.00  0.00     0.138 C 
ATOM      7  C5  <0> d           2.999   4.683  -9.829  0.00  0.00     0.070 C 
ATOM      8  C6  <0> d           1.766   4.705  -8.902  0.00  0.00     0.190 C 
ENDROOT
BRANCH   8   9
ATOM      9  C7  <0> d           2.177   4.351  -7.496  0.00  0.00     0.197 C 
ATOM     10  O2  <0> d           2.661   3.258  -7.260  0.00  0.00    -0.646 OA
ATOM     11  O3  <0> d           2.026   5.160  -6.596  0.00  0.00    -0.646 OA
ENDBRANCH   8   9
BRANCH   6  12
ATOM     12  O4  <0> d           3.463   3.428 -11.890  0.00  0.00    -0.394 OA
ATOM     13  H10 <0> d           4.359   3.687 -11.634  0.00  0.00     0.210 HD
ENDBRANCH   6  12
TORSDOF 2
ENDMDL
MODEL 6
REMARK VINA RESULT:    -1.825      8.157      9.364
REMARK ITER + INTRA:           -2.169
REMARK INTER:                  -1.988
REMARK INTRA:                  -0.181
REMARK UNBOUND:                -0.184
REMARK  2 active torsions:
REMARK  status: ('A' for Active; 'I' for Inactive)
REMARK       I    between atoms: C2_2  and  N1_4 
REMARK    1  A    between atoms: C4_6  and  O4_12 
REMARK    2  A    between atoms: C6_8  and  C7_9 
ROOT
ATOM      1  C1  <0> d          -0.931   2.068  -5.932  0.00  0.00     0.117 C 
ATOM      2  C2  <0> d          -1.380   2.701  -4.640  0.00  0.00     0.216 C 
ATOM      3  O1  <0> d          -2.422   2.354  -4.125  0.00  0.00    -0.274 OA
ATOM      4  N1  <0> d          -0.624   3.652  -4.057  0.00  0.00    -0.335 N 
ATOM      5  C3  <0> d           0.656   4.170  -4.575  0.00  0.00     0.158 C 
ATOM      6  C4  <0> d           0.791   5.583  -3.957  0.00  0.00     0.138 C 
ATOM      7  C5  <0> d           0.194   5.363  -2.542  0.00  0.00     0.070 C 
ATOM      8  C6  <0> d          -0.941   4.350  -2.802  0.00  0.00     0.190 C 
ENDROOT
BRANCH   8   9
ATOM      9  C7  <0> d          -1.011   3.359  -1.669  0.00  0.00     0.197 C 
ATOM     10  O2  <0> d          -2.035   3.252  -1.016  0.00  0.00    -0.646 OA
ATOM     11  O3  <0> d          -0.044   2.664  -1.406  0.00  0.00    -0.646 OA
ENDBRANCH   8   9
BRANCH   6  12
ATOM     12  O4  <0> d           2.162   5.979  -3.878  0.00  0.00    -0.394 OA
ATOM     13  H10 <0> d           2.540   6.257  -4.724  0.00  0.00     0.210 HD
ENDBRANCH   6  12
TORSDOF 2
ENDMDL
MODEL 7
REMARK VINA RESULT:    -1.757      3.643      6.134
REMARK ITER + INTRA:           -2.095
REMARK INTER:                  -1.912
REMARK INTRA:                  -0.183
REMARK UNBOUND:                -0.184
REMARK  2 active torsions:
REMARK  status: ('A' for Active; 'I' for Inactive)
REMARK       I    between atoms: C2_2  and  N1_4 
REMARK    1  A    between atoms: C4_6  and  O4_12 
REMARK    2  A    between atoms: C6_8  and  C7_9 
ROOT
ATOM      1  C1  <0> d           1.641   1.599  -7.023  0.00  0.00     0.117 C 
ATOM      2  C2  <0> d           3.120   1.777  -7.257  0.00  0.00     0.216 C 
ATOM      3  O1  <0> d           3.825   2.217  -6.373  0.00  0.00    -0.274 OA
ATOM      4  N1  <0> d           3.658   1.448  -8.448  0.00  0.00    -0.335 N 
ATOM      5  C3  <0> d           2.920   0.911  -9.606  0.00  0.00     0.158 C 
ATOM      6  C4  <0> d           3.784   1.285 -10.835  0.00  0.00     0.138 C 
ATOM      7  C5  <0> d           5.219   1.102 -10.274  0.00  0.00     0.070 C 
ATOM      8  C6  <0> d           5.078   1.571  -8.810  0.00  0.00     0.190 C 
ENDROOT
BRANCH   8   9
ATOM      9  C7  <0> d           5.913   0.697  -7.911  0.00  0.00     0.197 C 
ATOM     10  O2  <0> d           5.672  -0.495  -7.824  0.00  0.00    -0.646 OA
ATOM     11  O3  <0> d           6.831   1.183  -7.270  0.00  0.00    -0.646 OA
ENDBRANCH   8   9
BRANCH   6  12
ATOM     12  O4  <0> d           3.542   0.390 -11.923  0.00  0.00    -0.394 OA
ATOM     13  H10 <0> d           4.112   0.540 -12.690  0.00  0.00     0.210 HD
ENDBRANCH   6  12
TORSDOF 2
ENDMDL
MODEL 8
REMARK VINA RESULT:    -1.632      8.085      9.456
REMARK ITER + INTRA:           -1.960
REMARK INTER:                  -1.783
REMARK INTRA:                  -0.177
REMARK UNBOUND:                -0.184
REMARK  2 active torsions:
REMARK  status: ('A' for Active; 'I' for Inactive)
REMARK       I    between atoms: C2_2  and  N1_4 
REMARK    1  A    between atoms: C4_6  and  O4_12 
REMARK    2  A    between atoms: C6_8  and  C7_9 
ROOT
ATOM      1  C1  <0> d          -1.796   1.857  -7.733  0.00  0.00     0.117 C 
ATOM      2  C2  <0> d          -1.766   3.161  -6.978  0.00  0.00     0.216 C 
ATOM      3  O1  <0> d          -2.698   3.473  -6.268  0.00  0.00    -0.274 OA
ATOM      4  N1  <0> d          -0.702   3.981  -7.093  0.00  0.00    -0.335 N 
ATOM      5  C3  <0> d           0.491   3.731  -7.921  0.00  0.00     0.158 C 
ATOM      6  C4  <0> d           1.076   5.136  -8.209  0.00  0.00     0.138 C 
ATOM      7  C5  <0> d           0.812   5.864  -6.865  0.00  0.00     0.070 C 
ATOM      8  C6  <0> d          -0.542   5.277  -6.416  0.00  0.00     0.190 C 
ENDROOT
BRANCH   8   9
ATOM      9  C7  <0> d          -0.543   5.079  -4.923  0.00  0.00     0.197 C 
ATOM     10  O2  <0> d           0.211   4.267  -4.415  0.00  0.00    -0.646 OA
ATOM     11  O3  <0> d          -1.299   5.731  -4.222  0.00  0.00    -0.646 OA
ENDBRANCH   8   9
BRANCH   6  12
ATOM     12  O4  <0> d           2.476   5.061  -8.485  0.00  0.00    -0.394 OA
ATOM     13  H10 <0> d           3.034   5.081  -7.696  0.00  0.00     0.210 HD
ENDBRANCH   6  12
TORSDOF 2
ENDMDL
MODEL 9
REMARK VINA RESULT:    -1.162      6.324      7.840
REMARK ITER + INTRA:           -1.448
REMARK INTER:                  -1.265
REMARK INTRA:                  -0.183
REMARK UNBOUND:                -0.184
REMARK  2 active torsions:
REMARK  status: ('A' for Active; 'I' for Inactive)
REMARK       I    between atoms: C2_2  and  N1_4 
REMARK    1  A    between atoms: C4_6  and  O4_12 
REMARK    2  A    between atoms: C6_8  and  C7_9 
ROOT
ATOM      1  C1  <0> d           2.566   1.006  -7.748  0.00  0.00     0.117 C 
ATOM      2  C2  <0> d           1.488   1.372  -6.760  0.00  0.00     0.216 C 
ATOM      3  O1  <0> d           1.165   0.585  -5.896  0.00  0.00    -0.274 OA
ATOM      4  N1  <0> d           0.882   2.574  -6.838  0.00  0.00    -0.335 N 
ATOM      5  C3  <0> d           1.171   3.619  -7.837  0.00  0.00     0.158 C 
ATOM      6  C4  <0> d          -0.123   4.466  -7.911  0.00  0.00     0.138 C 
ATOM      7  C5  <0> d          -0.578   4.468  -6.427  0.00  0.00     0.070 C 
ATOM      8  C6  <0> d          -0.179   3.059  -5.943  0.00  0.00     0.190 C 
ENDROOT
BRANCH   8   9
ATOM      9  C7  <0> d           0.336   3.131  -4.529  0.00  0.00     0.197 C 
ATOM     10  O2  <0> d           1.336   3.780  -4.277  0.00  0.00    -0.646 OA
ATOM     11  O3  <0> d          -0.249   2.540  -3.637  0.00  0.00    -0.646 OA
ENDBRANCH   8   9
BRANCH   6  12
ATOM     12  O4  <0> d           0.157   5.792  -8.362  0.00  0.00    -0.394 OA
ATOM     13  H10 <0> d           0.315   5.858  -9.315  0.00  0.00     0.210 HD
ENDBRANCH   6  12
TORSDOF 2
ENDMDL
