MODEL 1
REMARK VINA RESULT:    -3.484      0.000      0.000
REMARK ITER + INTRA:           -3.974
REMARK INTER:                  -3.790
REMARK INTRA:                  -0.184
REMARK UNBOUND:                -0.184
REMARK  2 active torsions:
REMARK  status: ('A' for Active; 'I' for Inactive)
REMARK       I    between atoms: C2_2  and  N1_4 
REMARK    1  A    between atoms: C4_6  and  O4_12 
REMARK    2  A    between atoms: C6_8  and  C7_9 
ROOT
ATOM      1  C1  <0> d           9.417  -1.719  -5.793  0.00  0.00     0.117 C 
ATOM      2  C2  <0> d           8.639  -0.592  -6.422  0.00  0.00     0.216 C 
ATOM      3  O1  <0> d           8.728  -0.384  -7.614  0.00  0.00    -0.274 OA
ATOM      4  N1  <0> d           7.843   0.186  -5.660  0.00  0.00    -0.335 N 
ATOM      5  C3  <0> d           7.647   0.049  -4.205  0.00  0.00     0.158 C 
ATOM      6  C4  <0> d           7.203   1.455  -3.732  0.00  0.00     0.138 C 
ATOM      7  C5  <0> d           6.312   1.914  -4.916  0.00  0.00     0.070 C 
ATOM      8  C6  <0> d           7.032   1.313  -6.141  0.00  0.00     0.190 C 
ENDROOT
BRANCH   8   9
ATOM      9  C7  <0> d           6.017   0.824  -7.141  0.00  0.00     0.197 C 
ATOM     10  O2  <0> d           5.982   1.307  -8.260  0.00  0.00    -0.646 OA
ATOM     11  O3  <0> d           5.231  -0.055  -6.832  0.00  0.00    -0.646 OA
ENDBRANCH   8   9
BRANCH   6  12
ATOM     12  O4  <0> d           6.444   1.372  -2.523  0.00  0.00    -0.394 OA
ATOM     13  H10 <0> d           6.115   0.484  -2.326  0.00  0.00     0.210 HD
ENDBRANCH   6  12
TORSDOF 2
ENDMDL
MODEL 2
REMARK VINA RESULT:    -3.124      1.665      3.442
REMARK ITER + INTRA:           -3.582
REMARK INTER:                  -3.415
REMARK INTRA:                  -0.167
REMARK UNBOUND:                -0.184
REMARK  2 active torsions:
REMARK  status: ('A' for Active; 'I' for Inactive)
REMARK       I    between atoms: C2_2  and  N1_4 
REMARK    1  A    between atoms: C4_6  and  O4_12 
REMARK    2  A    between atoms: C6_8  and  C7_9 
ROOT
ATOM      1  C1  <0> d           8.653  -1.522  -3.440  0.00  0.00     0.117 C 
ATOM      2  C2  <0> d           7.457  -0.909  -4.123  0.00  0.00     0.216 C 
ATOM      3  O1  <0> d           6.427  -0.738  -3.504  0.00  0.00    -0.274 OA
ATOM      4  N1  <0> d           7.531  -0.552  -5.421  0.00  0.00    -0.335 N 
ATOM      5  C3  <0> d           8.712  -0.708  -6.289  0.00  0.00     0.158 C 
ATOM      6  C4  <0> d           8.142  -0.759  -7.728  0.00  0.00     0.138 C 
ATOM      7  C5  <0> d           6.980   0.264  -7.638  0.00  0.00     0.070 C 
ATOM      8  C6  <0> d           6.445   0.053  -6.206  0.00  0.00     0.190 C 
ENDROOT
BRANCH   8   9
ATOM      9  C7  <0> d           6.055   1.379  -5.606  0.00  0.00     0.197 C 
ATOM     10  O2  <0> d           6.912   2.208  -5.350  0.00  0.00    -0.646 OA
ATOM     11  O3  <0> d           4.882   1.622  -5.376  0.00  0.00    -0.646 OA
ENDBRANCH   8   9
BRANCH   6  12
ATOM     12  O4  <0> d           9.121  -0.340  -8.681  0.00  0.00    -0.394 OA
ATOM     13  H10 <0> d           9.112   0.611  -8.862  0.00  0.00     0.210 HD
ENDBRANCH   6  12
TORSDOF 2
ENDMDL
MODEL 3
REMARK VINA RESULT:    -2.987     10.953     12.944
REMARK ITER + INTRA:           -3.434
REMARK INTER:                  -3.251
REMARK INTRA:                  -0.183
REMARK UNBOUND:                -0.184
REMARK  2 active torsions:
REMARK  status: ('A' for Active; 'I' for Inactive)
REMARK       I    between atoms: C2_2  and  N1_4 
REMARK    1  A    between atoms: C4_6  and  O4_12 
REMARK    2  A    between atoms: C6_8  and  C7_9 
ROOT
ATOM      1  C1  <0> d           7.200   4.267   4.015  0.00  0.00     0.117 C 
ATOM      2  C2  <0> d           6.518   5.611   4.041  0.00  0.00     0.216 C 
ATOM      3  O1  <0> d           5.417   5.742   3.547  0.00  0.00    -0.274 OA
ATOM      4  N1  <0> d           7.130   6.668   4.612  0.00  0.00    -0.335 N 
ATOM      5  C3  <0> d           8.463   6.651   5.241  0.00  0.00     0.158 C 
ATOM      6  C4  <0> d           8.956   8.117   5.165  0.00  0.00     0.138 C 
ATOM      7  C5  <0> d           7.640   8.900   5.414  0.00  0.00     0.070 C 
ATOM      8  C6  <0> d           6.582   8.028   4.706  0.00  0.00     0.190 C 
ENDROOT
BRANCH   8   9
ATOM      9  C7  <0> d           5.309   8.013   5.512  0.00  0.00     0.197 C 
ATOM     10  O2  <0> d           4.279   8.456   5.033  0.00  0.00    -0.646 OA
ATOM     11  O3  <0> d           5.310   7.557   6.643  0.00  0.00    -0.646 OA
ENDBRANCH   8   9
BRANCH   6  12
ATOM     12  O4  <0> d           9.915   8.389   6.189  0.00  0.00    -0.394 OA
ATOM     13  H10 <0> d           9.524   8.590   7.050  0.00  0.00     0.210 HD
ENDBRANCH   6  12
TORSDOF 2
ENDMDL
MODEL 4
REMARK VINA RESULT:    -2.726      9.837     11.104
REMARK ITER + INTRA:           -3.149
REMARK INTER:                  -2.969
REMARK INTRA:                  -0.180
REMARK UNBOUND:                -0.184
REMARK  2 active torsions:
REMARK  status: ('A' for Active; 'I' for Inactive)
REMARK       I    between atoms: C2_2  and  N1_4 
REMARK    1  A    between atoms: C4_6  and  O4_12 
REMARK    2  A    between atoms: C6_8  and  C7_9 
ROOT
ATOM      1  C1  <0> d           8.880   2.504   4.230  0.00  0.00     0.117 C 
ATOM      2  C2  <0> d           7.871   3.432   3.605  0.00  0.00     0.216 C 
ATOM      3  O1  <0> d           7.211   3.062   2.657  0.00  0.00    -0.274 OA
ATOM      4  N1  <0> d           7.701   4.675   4.099  0.00  0.00    -0.335 N 
ATOM      5  C3  <0> d           8.436   5.255   5.238  0.00  0.00     0.158 C 
ATOM      6  C4  <0> d           8.363   6.786   5.018  0.00  0.00     0.138 C 
ATOM      7  C5  <0> d           6.931   6.950   4.445  0.00  0.00     0.070 C 
ATOM      8  C6  <0> d           6.756   5.679   3.588  0.00  0.00     0.190 C 
ENDROOT
BRANCH   8   9
ATOM      9  C7  <0> d           5.345   5.167   3.715  0.00  0.00     0.197 C 
ATOM     10  O2  <0> d           4.901   4.871   4.811  0.00  0.00    -0.646 OA
ATOM     11  O3  <0> d           4.648   5.049   2.722  0.00  0.00    -0.646 OA
ENDBRANCH   8   9
BRANCH   6  12
ATOM     12  O4  <0> d           8.503   7.488   6.256  0.00  0.00    -0.394 OA
ATOM     13  H10 <0> d           9.413   7.535   6.580  0.00  0.00     0.210 HD
ENDBRANCH   6  12
TORSDOF 2
ENDMDL
MODEL 5
REMARK VINA RESULT:    -2.427     11.814     13.677
REMARK ITER + INTRA:           -2.824
REMARK INTER:                  -2.640
REMARK INTRA:                  -0.183
REMARK UNBOUND:                -0.184
REMARK  2 active torsions:
REMARK  status: ('A' for Active; 'I' for Inactive)
REMARK       I    between atoms: C2_2  and  N1_4 
REMARK    1  A    between atoms: C4_6  and  O4_12 
REMARK    2  A    between atoms: C6_8  and  C7_9 
ROOT
ATOM      1  C1  <0> d          -3.009   7.405 -12.271  0.00  0.00     0.117 C 
ATOM      2  C2  <0> d          -2.205   8.634 -12.611  0.00  0.00     0.216 C 
ATOM      3  O1  <0> d          -2.763   9.630 -13.021  0.00  0.00    -0.274 OA
ATOM      4  N1  <0> d          -0.865   8.626 -12.460  0.00  0.00    -0.335 N 
ATOM      5  C3  <0> d          -0.062   7.487 -11.980  0.00  0.00     0.158 C 
ATOM      6  C4  <0> d           1.354   7.728 -12.559  0.00  0.00     0.138 C 
ATOM      7  C5  <0> d           1.474   9.272 -12.454  0.00  0.00     0.070 C 
ATOM      8  C6  <0> d           0.037   9.749 -12.753  0.00  0.00     0.190 C 
ENDROOT
BRANCH   8   9
ATOM      9  C7  <0> d          -0.305  10.923 -11.873  0.00  0.00     0.197 C 
ATOM     10  O2  <0> d          -0.328  10.791 -10.661  0.00  0.00    -0.646 OA
ATOM     11  O3  <0> d          -0.558  12.006 -12.373  0.00  0.00    -0.646 OA
ENDBRANCH   8   9
BRANCH   6  12
ATOM     12  O4  <0> d           2.350   7.082 -11.763  0.00  0.00    -0.394 OA
ATOM     13  H10 <0> d           1.994   6.590 -11.011  0.00  0.00     0.210 HD
ENDBRANCH   6  12
TORSDOF 2
ENDMDL
MODEL 6
REMARK VINA RESULT:    -2.397      7.769      8.549
REMARK ITER + INTRA:           -2.792
REMARK INTER:                  -2.609
REMARK INTRA:                  -0.183
REMARK UNBOUND:                -0.184
REMARK  2 active torsions:
REMARK  status: ('A' for Active; 'I' for Inactive)
REMARK       I    between atoms: C2_2  and  N1_4 
REMARK    1  A    between atoms: C4_6  and  O4_12 
REMARK    2  A    between atoms: C6_8  and  C7_9 
ROOT
ATOM      1  C1  <0> d          -2.250   3.154  -5.848  0.00  0.00     0.117 C 
ATOM      2  C2  <0> d          -1.074   3.488  -6.729  0.00  0.00     0.216 C 
ATOM      3  O1  <0> d          -1.020   3.053  -7.860  0.00  0.00    -0.274 OA
ATOM      4  N1  <0> d          -0.081   4.270  -6.260  0.00  0.00    -0.335 N 
ATOM      5  C3  <0> d          -0.016   4.859  -4.910  0.00  0.00     0.158 C 
ATOM      6  C4  <0> d           1.492   5.104  -4.656  0.00  0.00     0.138 C 
ATOM      7  C5  <0> d           1.977   5.541  -6.064  0.00  0.00     0.070 C 
ATOM      8  C6  <0> d           1.119   4.674  -7.008  0.00  0.00     0.190 C 
ENDROOT
BRANCH   8   9
ATOM      9  C7  <0> d           0.722   5.476  -8.220  0.00  0.00     0.197 C 
ATOM     10  O2  <0> d           0.049   6.484  -8.089  0.00  0.00    -0.646 OA
ATOM     11  O3  <0> d           1.075   5.117  -9.331  0.00  0.00    -0.646 OA
ENDBRANCH   8   9
BRANCH   6  12
ATOM     12  O4  <0> d           1.688   6.148  -3.700  0.00  0.00    -0.394 OA
ATOM     13  H10 <0> d           2.602   6.237  -3.398  0.00  0.00     0.210 HD
ENDBRANCH   6  12
TORSDOF 2
ENDMDL
MODEL 7
REMARK VINA RESULT:    -2.182      5.709      7.202
REMARK ITER + INTRA:           -2.557
REMARK INTER:                  -2.375
REMARK INTRA:                  -0.183
REMARK UNBOUND:                -0.184
REMARK  2 active torsions:
REMARK  status: ('A' for Active; 'I' for Inactive)
REMARK       I    between atoms: C2_2  and  N1_4 
REMARK    1  A    between atoms: C4_6  and  O4_12 
REMARK    2  A    between atoms: C6_8  and  C7_9 
ROOT
ATOM      1  C1  <0> d          -1.467   2.959  -4.389  0.00  0.00     0.117 C 
ATOM      2  C2  <0> d          -0.447   3.188  -5.474  0.00  0.00     0.216 C 
ATOM      3  O1  <0> d          -0.804   3.554  -6.574  0.00  0.00    -0.274 OA
ATOM      4  N1  <0> d           0.862   2.987  -5.223  0.00  0.00    -0.335 N 
ATOM      5  C3  <0> d           1.432   2.539  -3.938  0.00  0.00     0.158 C 
ATOM      6  C4  <0> d           2.783   1.881  -4.312  0.00  0.00     0.138 C 
ATOM      7  C5  <0> d           3.270   2.802  -5.461  0.00  0.00     0.070 C 
ATOM      8  C6  <0> d           1.958   3.172  -6.185  0.00  0.00     0.190 C 
ENDROOT
BRANCH   8   9
ATOM      9  C7  <0> d           2.010   4.609  -6.633  0.00  0.00     0.197 C 
ATOM     10  O2  <0> d           2.147   5.499  -5.811  0.00  0.00    -0.646 OA
ATOM     11  O3  <0> d           1.915   4.882  -7.818  0.00  0.00    -0.646 OA
ENDBRANCH   8   9
BRANCH   6  12
ATOM     12  O4  <0> d           3.691   1.915  -3.209  0.00  0.00    -0.394 OA
ATOM     13  H10 <0> d           4.526   2.363  -3.401  0.00  0.00     0.210 HD
ENDBRANCH   6  12
TORSDOF 2
ENDMDL
MODEL 8
REMARK VINA RESULT:    -1.419     10.323     11.279
REMARK ITER + INTRA:           -1.728
REMARK INTER:                  -1.567
REMARK INTRA:                  -0.161
REMARK UNBOUND:                -0.184
REMARK  2 active torsions:
REMARK  status: ('A' for Active; 'I' for Inactive)
REMARK       I    between atoms: C2_2  and  N1_4 
REMARK    1  A    between atoms: C4_6  and  O4_12 
REMARK    2  A    between atoms: C6_8  and  C7_9 
ROOT
ATOM      1  C1  <0> d          -1.717   2.996   2.708  0.00  0.00     0.117 C 
ATOM      2  C2  <0> d          -0.946   3.506   1.518  0.00  0.00     0.216 C 
ATOM      3  O1  <0> d          -1.078   2.974   0.436  0.00  0.00    -0.274 OA
ATOM      4  N1  <0> d          -0.110   4.555   1.656  0.00  0.00    -0.335 N 
ATOM      5  C3  <0> d           0.149   5.289   2.908  0.00  0.00     0.158 C 
ATOM      6  C4  <0> d           1.549   5.921   2.715  0.00  0.00     0.138 C 
ATOM      7  C5  <0> d           1.513   6.303   1.211  0.00  0.00     0.070 C 
ATOM      8  C6  <0> d           0.699   5.153   0.584  0.00  0.00     0.190 C 
ENDROOT
BRANCH   8   9
ATOM      9  C7  <0> d          -0.200   5.693  -0.497  0.00  0.00     0.197 C 
ATOM     10  O2  <0> d           0.012   5.412  -1.664  0.00  0.00    -0.646 OA
ATOM     11  O3  <0> d          -1.142   6.410  -0.204  0.00  0.00    -0.646 OA
ENDBRANCH   8   9
BRANCH   6  12
ATOM     12  O4  <0> d           1.705   7.081   3.534  0.00  0.00    -0.394 OA
ATOM     13  H10 <0> d           2.243   7.778   3.132  0.00  0.00     0.210 HD
ENDBRANCH   6  12
TORSDOF 2
ENDMDL
MODEL 9
REMARK VINA RESULT:    -1.177     10.662     12.405
REMARK ITER + INTRA:           -1.464
REMARK INTER:                  -1.282
REMARK INTRA:                  -0.182
REMARK UNBOUND:                -0.184
REMARK  2 active torsions:
REMARK  status: ('A' for Active; 'I' for Inactive)
REMARK       I    between atoms: C2_2  and  N1_4 
REMARK    1  A    between atoms: C4_6  and  O4_12 
REMARK    2  A    between atoms: C6_8  and  C7_9 
ROOT
ATOM      1  C1  <0> d          -0.943   3.236   4.111  0.00  0.00     0.117 C 
ATOM      2  C2  <0> d           0.381   3.877   3.786  0.00  0.00     0.216 C 
ATOM      3  O1  <0> d           1.382   3.196   3.709  0.00  0.00    -0.274 OA
ATOM      4  N1  <0> d           0.454   5.207   3.581  0.00  0.00    -0.335 N 
ATOM      5  C3  <0> d          -0.677   6.150   3.649  0.00  0.00     0.158 C 
ATOM      6  C4  <0> d          -0.031   7.522   3.965  0.00  0.00     0.138 C 
ATOM      7  C5  <0> d           1.280   7.446   3.139  0.00  0.00     0.070 C 
ATOM      8  C6  <0> d           1.676   5.959   3.259  0.00  0.00     0.190 C 
ENDROOT
BRANCH   8   9
ATOM      9  C7  <0> d           2.245   5.475   1.951  0.00  0.00     0.197 C 
ATOM     10  O2  <0> d           1.570   5.523   0.937  0.00  0.00    -0.646 OA
ATOM     11  O3  <0> d           3.382   5.035   1.906  0.00  0.00    -0.646 OA
ENDBRANCH   8   9
BRANCH   6  12
ATOM     12  O4  <0> d          -0.860   8.594   3.512  0.00  0.00    -0.394 OA
ATOM     13  H10 <0> d          -0.401   9.237   2.953  0.00  0.00     0.210 HD
ENDBRANCH   6  12
TORSDOF 2
ENDMDL
