REMARK  2 active torsions:
REMARK  status: ('A' for Active; 'I' for Inactive)
REMARK    1  A    between atoms: C2_2  and  C3_3 
REMARK    2  A    between atoms: C3_3  and  C4_4 
ROOT
HETATM    1  C4  UNL     1       1.885  -1.036  -0.112  1.00 20.00    -0.058 A 
HETATM    2  C5  UNL     1       2.921  -1.631   0.608  1.00 20.00     0.007 A 
HETATM    3  C6  UNL     1       2.878  -1.652   2.002  1.00 20.00     0.001 A 
HETATM    4  C7  UNL     1       1.800  -1.079   2.676  1.00 20.00     0.000 A 
HETATM    5  C8  UNL     1       0.764  -0.484   1.955  1.00 20.00     0.001 A 
HETATM    6  C9  UNL     1       0.807  -0.463   0.561  1.00 20.00     0.007 A 
ENDROOT
BRANCH   1   7
HETATM    7  C3  UNL     1       1.931  -1.014  -1.603  1.00 20.00     0.038 C 
BRANCH   7   8
HETATM    8  C2  UNL     1       2.635   0.240  -2.124  1.00 20.00     0.000 C 
HETATM    9  C1  UNL     1       2.681   0.261  -3.644  1.00 20.00     0.005 C 
ENDBRANCH   7   8
ENDBRANCH   1   7
TORSDOF 2
