MODEL 1
REMARK VINA RESULT:      -6.3      0.000      0.000
REMARK  2 active torsions:
REMARK  status: ('A' for Active; 'I' for Inactive)
REMARK    1  A    between atoms: C2_2  and  C3_3 
REMARK    2  A    between atoms: C3_3  and  C4_4 
ROOT
HETATM    1  C4  UNL     1     -33.192   6.640   3.877  1.00 20.00    -0.058 A 
HETATM    2  C5  UNL     1     -33.422   7.042   5.193  1.00 20.00     0.007 A 
HETATM    3  C6  UNL     1     -34.298   6.317   6.000  1.00 20.00     0.001 A 
HETATM    4  C7  UNL     1     -34.944   5.191   5.492  1.00 20.00     0.000 A 
HETATM    5  C8  UNL     1     -34.714   4.789   4.176  1.00 20.00     0.001 A 
HETATM    6  C9  UNL     1     -33.838   5.514   3.369  1.00 20.00     0.007 A 
ENDROOT
BRANCH   1   7
HETATM    7  C3  UNL     1     -32.254   7.415   3.014  1.00 20.00     0.038 C 
BRANCH   7   8
HETATM    8  C2  UNL     1     -32.639   7.316   1.537  1.00 20.00     0.000 C 
HETATM    9  C1  UNL     1     -32.782   8.692   0.905  1.00 20.00     0.005 C 
ENDBRANCH   7   8
ENDBRANCH   1   7
TORSDOF 2
ENDMDL
MODEL 2
REMARK VINA RESULT:      -6.3      0.016      1.610
REMARK  2 active torsions:
REMARK  status: ('A' for Active; 'I' for Inactive)
REMARK    1  A    between atoms: C2_2  and  C3_3 
REMARK    2  A    between atoms: C3_3  and  C4_4 
ROOT
HETATM    1  C4  UNL     1     -33.185   6.647   3.881  1.00 20.00    -0.058 A 
HETATM    2  C5  UNL     1     -33.842   5.527   3.370  1.00 20.00     0.007 A 
HETATM    3  C6  UNL     1     -34.721   4.806   4.178  1.00 20.00     0.001 A 
HETATM    4  C7  UNL     1     -34.943   5.204   5.496  1.00 20.00     0.000 A 
HETATM    5  C8  UNL     1     -34.286   6.323   6.006  1.00 20.00     0.001 A 
HETATM    6  C9  UNL     1     -33.407   7.044   5.198  1.00 20.00     0.007 A 
ENDROOT
BRANCH   1   7
HETATM    7  C3  UNL     1     -32.245   7.418   3.016  1.00 20.00     0.038 C 
BRANCH   7   8
HETATM    8  C2  UNL     1     -32.624   7.308   1.538  1.00 20.00     0.000 C 
HETATM    9  C1  UNL     1     -32.804   8.680   0.907  1.00 20.00     0.005 C 
ENDBRANCH   7   8
ENDBRANCH   1   7
TORSDOF 2
ENDMDL
MODEL 3
REMARK VINA RESULT:      -3.9      1.116      2.260
REMARK  2 active torsions:
REMARK  status: ('A' for Active; 'I' for Inactive)
REMARK    1  A    between atoms: C2_2  and  C3_3 
REMARK    2  A    between atoms: C3_3  and  C4_4 
ROOT
HETATM    1  C4  UNL     1     -33.578   6.465   4.003  1.00 20.00    -0.058 A 
HETATM    2  C5  UNL     1     -34.499   5.425   3.871  1.00 20.00     0.007 A 
HETATM    3  C6  UNL     1     -35.220   4.988   4.982  1.00 20.00     0.001 A 
HETATM    4  C7  UNL     1     -35.021   5.589   6.224  1.00 20.00     0.000 A 
HETATM    5  C8  UNL     1     -34.099   6.629   6.356  1.00 20.00     0.001 A 
HETATM    6  C9  UNL     1     -33.379   7.066   5.245  1.00 20.00     0.007 A 
ENDROOT
BRANCH   1   7
HETATM    7  C3  UNL     1     -32.808   6.933   2.814  1.00 20.00     0.038 C 
BRANCH   7   8
HETATM    8  C2  UNL     1     -32.965   5.976   1.632  1.00 20.00     0.000 C 
HETATM    9  C1  UNL     1     -32.869   4.524   2.075  1.00 20.00     0.005 C 
ENDBRANCH   7   8
ENDBRANCH   1   7
TORSDOF 2
ENDMDL
MODEL 4
REMARK VINA RESULT:      -3.7      1.196      4.129
REMARK  2 active torsions:
REMARK  status: ('A' for Active; 'I' for Inactive)
REMARK    1  A    between atoms: C2_2  and  C3_3 
REMARK    2  A    between atoms: C3_3  and  C4_4 
ROOT
HETATM    1  C4  UNL     1     -34.311   5.487   3.810  1.00 20.00    -0.058 A 
HETATM    2  C5  UNL     1     -33.882   4.539   2.882  1.00 20.00     0.007 A 
HETATM    3  C6  UNL     1     -32.912   4.877   1.938  1.00 20.00     0.001 A 
HETATM    4  C7  UNL     1     -32.372   6.163   1.921  1.00 20.00     0.000 A 
HETATM    5  C8  UNL     1     -32.803   7.111   2.850  1.00 20.00     0.001 A 
HETATM    6  C9  UNL     1     -33.772   6.773   3.794  1.00 20.00     0.007 A 
ENDROOT
BRANCH   1   7
HETATM    7  C3  UNL     1     -35.348   5.125   4.820  1.00 20.00     0.038 C 
BRANCH   7   8
HETATM    8  C2  UNL     1     -34.824   5.296   6.247  1.00 20.00     0.000 C 
HETATM    9  C1  UNL     1     -34.121   6.632   6.425  1.00 20.00     0.005 C 
ENDBRANCH   7   8
ENDBRANCH   1   7
TORSDOF 2
ENDMDL
MODEL 5
REMARK VINA RESULT:      -3.7      1.199      3.860
REMARK  2 active torsions:
REMARK  status: ('A' for Active; 'I' for Inactive)
REMARK    1  A    between atoms: C2_2  and  C3_3 
REMARK    2  A    between atoms: C3_3  and  C4_4 
ROOT
HETATM    1  C4  UNL     1     -34.309   5.473   3.808  1.00 20.00    -0.058 A 
HETATM    2  C5  UNL     1     -33.781   6.763   3.778  1.00 20.00     0.007 A 
HETATM    3  C6  UNL     1     -32.821   7.101   2.824  1.00 20.00     0.001 A 
HETATM    4  C7  UNL     1     -32.389   6.149   1.901  1.00 20.00     0.000 A 
HETATM    5  C8  UNL     1     -32.918   4.858   1.932  1.00 20.00     0.001 A 
HETATM    6  C9  UNL     1     -33.878   4.521   2.886  1.00 20.00     0.007 A 
ENDROOT
BRANCH   1   7
HETATM    7  C3  UNL     1     -35.337   5.112   4.828  1.00 20.00     0.038 C 
BRANCH   7   8
HETATM    8  C2  UNL     1     -34.786   5.242   6.249  1.00 20.00     0.000 C 
HETATM    9  C1  UNL     1     -34.158   6.608   6.480  1.00 20.00     0.005 C 
ENDBRANCH   7   8
ENDBRANCH   1   7
TORSDOF 2
ENDMDL
